
     RDKit          3D

  7  7  0  0  0  0  0  0  0  0999 V2000
  -22.1114   47.5509   -2.5288 N   0  0  0  0  0  0  0  0  0  0  0  0
  -23.1613   48.2142   -3.3729 C   0  0  2  0  0  0  0  0  0  0  0  0
  -22.6104   48.8297   -4.6940 C   0  0  0  0  0  0  0  0  0  0  0  0
  -22.7282   50.2789   -4.5744 O   0  0  0  0  0  0  0  0  0  0  0  0
  -23.5856   50.5651   -3.4732 N   0  0  0  0  0  0  0  0  0  0  0  0
  -23.7845   49.4550   -2.7023 C   0  0  0  0  0  0  0  0  0  0  0  0
  -24.2732   49.5050   -1.5837 O   0  0  0  0  0  0  0  0  0  0  0  0
  5  4  1  0
  4  3  1  0
  3  2  1  0
  2  1  1  1
  2  6  1  0
  6  7  2  0
  6  5  1  0
M  END
$$$$
