
     RDKit          3D

 16 16  0  0  0  0  0  0  0  0999 V2000
    7.9948   27.8565  -12.9784 C   0  0  0  0  0  0  0  0  0  0  0  0
    6.7875   27.0821  -12.4484 C   0  0  0  0  0  0  0  0  0  0  0  0
    7.0135   25.7696  -12.2142 N   0  0  0  0  0  0  0  0  0  0  0  0
    6.0011   25.0163  -11.7365 C   0  0  0  0  0  0  0  0  0  0  0  0
    4.7049   25.5161  -11.5346 C   0  0  0  0  0  0  0  0  0  0  0  0
    3.6324   24.5802  -10.9995 C   0  0  0  0  0  0  0  0  0  0  0  0
    2.6507   24.3791  -12.0113 O   0  0  0  0  0  0  0  0  0  0  0  0
    1.3328   23.6175  -11.5582 P   0  0  0  0  0  5  0  0  0  0  0  0
    0.4338   24.2718  -10.6117 O   0  0  0  0  0  0  0  0  0  0  0  0
    0.7028   23.0638  -12.8750 O   0  0  0  0  0  0  0  0  0  0  0  0
    1.9211   22.2780  -11.0170 O   0  0  0  0  0  0  0  0  0  0  0  0
    4.4346   26.8716  -11.8377 C   0  0  0  0  0  0  0  0  0  0  0  0
    3.0217   27.4032  -11.7385 C   0  0  0  0  0  0  0  0  0  0  0  0
    2.6191   28.3876  -12.3334 O   0  0  0  0  0  0  0  0  0  0  0  0
    5.5180   27.6873  -12.2590 C   0  0  0  0  0  0  0  0  0  0  0  0
    5.3508   29.0385  -12.4596 O   0  0  0  0  0  0  0  0  0  0  0  0
 16 15  1  0
 15  2  2  0
  2  1  1  0
  2  3  1  0
  3  4  2  0
  4  5  1  0
  5  6  1  0
  6  7  1  0
  7  8  1  0
  8  9  2  0
  8 10  1  0
  8 11  1  0
  5 12  2  0
 12 13  1  0
 13 14  2  0
 12 15  1  0
M  END
$$$$
