
     RDKit          3D

 16 16  0  0  0  0  0  0  0  0999 V2000
    7.9829   27.6867  -12.8994 C   0  0  0  0  0  0  0  0  0  0  0  0
    6.7172   26.9680  -12.4350 C   0  0  0  0  0  0  0  0  0  0  0  0
    6.8889   25.6637  -12.1342 N   0  0  0  0  0  0  0  0  0  0  0  0
    5.8303   24.9626  -11.6879 C   0  0  0  0  0  0  0  0  0  0  0  0
    4.5417   25.5058  -11.5750 C   0  0  0  0  0  0  0  0  0  0  0  0
    3.4374   24.6034  -11.0518 C   0  0  0  0  0  0  0  0  0  0  0  0
    2.4754   24.4276  -12.0871 O   0  0  0  0  0  0  0  0  0  0  0  0
    1.2155   23.5060  -11.7997 P   0  0  0  0  0  5  0  0  0  0  0  0
    0.2880   23.2527  -12.9001 O   0  0  0  0  0  0  0  0  0  0  0  0
    1.8241   22.2463  -11.1079 O   0  0  0  0  0  0  0  0  0  0  0  0
    0.5697   24.2057  -10.5668 O   0  0  0  0  0  0  0  0  0  0  0  0
    4.3253   26.8530  -11.9630 C   0  0  0  0  0  0  0  0  0  0  0  0
    2.9301   27.4386  -11.9542 C   0  0  0  0  0  0  0  0  0  0  0  0
    2.5964   28.4437  -12.5582 O   0  0  0  0  0  0  0  0  0  0  0  0
    5.4562   27.6137  -12.3638 C   0  0  0  0  0  0  0  0  0  0  0  0
    5.3449   28.9542  -12.6539 O   0  0  0  0  0  0  0  0  0  0  0  0
 16 15  1  0
 15  2  2  0
  2  1  1  0
  2  3  1  0
  3  4  2  0
  4  5  1  0
  5  6  1  0
  6  7  1  0
  7  8  1  0
  8  9  2  0
  8 10  1  0
  8 11  1  0
  5 12  2  0
 12 13  1  0
 13 14  2  0
 12 15  1  0
M  END
$$$$
