
     RDKit          3D

 16 16  0  0  0  0  0  0  0  0999 V2000
    8.0083   27.7315  -13.0030 C   0  0  0  0  0  0  0  0  0  0  0  0
    6.8023   26.9613  -12.4631 C   0  0  0  0  0  0  0  0  0  0  0  0
    7.0172   25.6435  -12.2602 N   0  0  0  0  0  0  0  0  0  0  0  0
    6.0162   24.8935  -11.7590 C   0  0  0  0  0  0  0  0  0  0  0  0
    4.7397   25.4074  -11.4899 C   0  0  0  0  0  0  0  0  0  0  0  0
    3.6891   24.4696  -10.9196 C   0  0  0  0  0  0  0  0  0  0  0  0
    2.7490   24.2044  -11.9412 O   0  0  0  0  0  0  0  0  0  0  0  0
    1.3811   23.5278  -11.5150 P   0  0  0  0  0  5  0  0  0  0  0  0
    1.4673   22.4054  -10.5782 O   0  0  0  0  0  0  0  0  0  0  0  0
    0.5742   24.7544  -10.9920 O   0  0  0  0  0  0  0  0  0  0  0  0
    0.7079   23.2499  -12.8984 O   0  0  0  0  0  0  0  0  0  0  0  0
    4.4716   26.7729  -11.7687 C   0  0  0  0  0  0  0  0  0  0  0  0
    3.0719   27.3276  -11.6070 C   0  0  0  0  0  0  0  0  0  0  0  0
    2.6899   28.3880  -12.0684 O   0  0  0  0  0  0  0  0  0  0  0  0
    5.5504   27.5805  -12.2189 C   0  0  0  0  0  0  0  0  0  0  0  0
    5.4075   28.9394  -12.3896 O   0  0  0  0  0  0  0  0  0  0  0  0
 16 15  1  0
 15  2  2  0
  2  1  1  0
  2  3  1  0
  3  4  2  0
  4  5  1  0
  5  6  1  0
  6  7  1  0
  7  8  1  0
  8  9  2  0
  8 10  1  0
  8 11  1  0
  5 12  2  0
 12 13  1  0
 13 14  2  0
 12 15  1  0
M  END
$$$$
