
     RDKit          3D

 22 23  0  0  0  0  0  0  0  0999 V2000
    7.8062   28.0174  -13.1980 C   0  0  0  0  0  0  0  0  0  0  0  0
    6.6245   27.2123  -12.6630 C   0  0  0  0  0  0  0  0  0  0  0  0
    6.9232   25.9535  -12.2723 N   0  0  0  0  0  0  0  0  0  0  0  0
    5.9443   25.1922  -11.7478 C   0  0  0  0  0  0  0  0  0  0  0  0
    4.6102   25.6235  -11.6536 C   0  0  0  0  0  0  0  0  0  0  0  0
    3.6112   24.6691  -11.0293 C   0  0  0  0  0  0  0  0  0  0  0  0
    2.5447   24.5059  -11.9425 O   0  0  0  0  0  0  0  0  0  0  0  0
    1.4152   23.4826  -11.5278 P   0  0  0  0  0  5  0  0  0  0  0  0
    1.8479   22.1976  -10.9685 O   0  0  0  0  0  0  0  0  0  0  0  0
    0.6333   23.4791  -12.8765 O   0  0  0  0  0  0  0  0  0  0  0  0
    0.5396   24.3965  -10.6154 O   0  0  0  0  0  0  0  0  0  0  0  0
    4.2637   26.9103  -12.1447 C   0  0  0  0  0  0  0  0  0  0  0  0
    2.8271   27.4071  -12.1883 C   0  0  0  0  0  0  0  0  0  0  0  0
    2.0404   26.8899  -13.3549 N   0  0  0  0  0  4  0  0  0  0  0  0
    0.7069   27.6028  -13.5124 C   0  0  0  0  0  0  0  0  0  0  0  0
    0.0656   28.3355  -12.5565 C   0  0  0  0  0  0  0  0  0  0  0  0
   -1.1383   28.8287  -12.9971 O   0  0  0  0  0  0  0  0  0  0  0  0
   -1.2362   28.3725  -14.3577 N   0  0  0  0  0  0  0  0  0  0  0  0
   -0.1941   27.5446  -14.6604 C   0  0  0  0  0  0  0  0  0  0  0  0
   -0.0889   26.8683  -15.6550 O   0  0  0  0  0  0  0  0  0  0  0  0
    5.3036   27.7376  -12.6095 C   0  0  0  0  0  0  0  0  0  0  0  0
    5.0169   29.0280  -12.9870 O   0  0  0  0  0  0  0  0  0  0  0  0
 22 21  1  0
 21  2  2  0
  2  1  1  0
  2  3  1  0
  3  4  2  0
  4  5  1  0
  5  6  1  0
  6  7  1  0
  7  8  1  0
  8  9  2  0
  8 10  1  0
  8 11  1  0
  5 12  2  0
 12 13  1  0
 13 14  1  0
 14 15  1  0
 15 16  2  0
 16 17  1  0
 17 18  1  0
 18 19  1  0
 19 20  2  0
 12 21  1  0
 19 15  1  0
M  CHG  1  14   1
M  END
$$$$
