
     RDKit          3D

 22 23  0  0  0  0  0  0  0  0999 V2000
    7.9499   27.7683  -13.1014 C   0  0  0  0  0  0  0  0  0  0  0  0
    6.7413   27.0060  -12.5592 C   0  0  0  0  0  0  0  0  0  0  0  0
    6.9968   25.7488  -12.1439 N   0  0  0  0  0  0  0  0  0  0  0  0
    5.9917   25.0268  -11.6077 C   0  0  0  0  0  0  0  0  0  0  0  0
    4.6693   25.4998  -11.5074 C   0  0  0  0  0  0  0  0  0  0  0  0
    3.6700   24.6033  -10.7720 C   0  0  0  0  0  0  0  0  0  0  0  0
    3.0360   23.6979  -11.6725 O   0  0  0  0  0  0  0  0  0  0  0  0
    1.4764   23.8447  -11.8934 P   0  0  0  0  0  5  0  0  0  0  0  0
    1.0905   25.1379  -12.4741 O   0  0  0  0  0  0  0  0  0  0  0  0
    0.9023   23.5408  -10.4735 O   0  0  0  0  0  0  0  0  0  0  0  0
    1.0362   22.5390  -12.6294 O   0  0  0  0  0  0  0  0  0  0  0  0
    4.3701   26.7990  -12.0207 C   0  0  0  0  0  0  0  0  0  0  0  0
    2.9728   27.4104  -12.0447 C   0  0  0  0  0  0  0  0  0  0  0  0
    2.3508   27.4092  -13.4102 N   0  0  0  0  0  4  0  0  0  0  0  0
    1.1140   28.2863  -13.5092 C   0  0  0  0  0  0  0  0  0  0  0  0
   -0.1031   27.9180  -13.0393 C   0  0  0  0  0  0  0  0  0  0  0  0
   -1.1021   28.7818  -13.3916 O   0  0  0  0  0  0  0  0  0  0  0  0
   -0.4394   29.7619  -14.2103 N   0  0  0  0  0  0  0  0  0  0  0  0
    0.9147   29.5639  -14.2027 C   0  0  0  0  0  0  0  0  0  0  0  0
    1.7563   30.3199  -14.6601 O   0  0  0  0  0  0  0  0  0  0  0  0
    5.4391   27.5702  -12.5191 C   0  0  0  0  0  0  0  0  0  0  0  0
    5.2031   28.8587  -12.9352 O   0  0  0  0  0  0  0  0  0  0  0  0
 22 21  1  0
 21  2  2  0
  2  1  1  0
  2  3  1  0
  3  4  2  0
  4  5  1  0
  5  6  1  0
  6  7  1  0
  7  8  1  0
  8  9  2  0
  8 10  1  0
  8 11  1  0
  5 12  2  0
 12 13  1  0
 13 14  1  0
 14 15  1  0
 15 16  2  0
 16 17  1  0
 17 18  1  0
 18 19  1  0
 19 20  2  0
 12 21  1  0
 19 15  1  0
M  CHG  1  14   1
M  END
$$$$
