
     RDKit          3D

 22 23  0  0  0  0  0  0  0  0999 V2000
    8.0058   27.9052  -13.0927 C   0  0  0  0  0  0  0  0  0  0  0  0
    6.7887   27.1310  -12.5913 C   0  0  0  0  0  0  0  0  0  0  0  0
    7.0396   25.8675  -12.1884 N   0  0  0  0  0  0  0  0  0  0  0  0
    6.0198   25.1233  -11.7181 C   0  0  0  0  0  0  0  0  0  0  0  0
    4.6863   25.5741  -11.6925 C   0  0  0  0  0  0  0  0  0  0  0  0
    3.6436   24.6096  -11.1397 C   0  0  0  0  0  0  0  0  0  0  0  0
    2.5521   24.5086  -12.0498 O   0  0  0  0  0  0  0  0  0  0  0  0
    1.3360   23.5430  -11.6864 P   0  0  0  0  0  5  0  0  0  0  0  0
    0.4375   23.1526  -12.7688 O   0  0  0  0  0  0  0  0  0  0  0  0
    0.6704   24.3222  -10.5067 O   0  0  0  0  0  0  0  0  0  0  0  0
    1.9927   22.3686  -10.9019 O   0  0  0  0  0  0  0  0  0  0  0  0
    4.3984   26.8798  -12.1785 C   0  0  0  0  0  0  0  0  0  0  0  0
    2.9850   27.4231  -12.3338 C   0  0  0  0  0  0  0  0  0  0  0  0
    2.7327   27.8379  -13.7420 N   0  0  0  0  0  4  0  0  0  0  0  0
    1.3379   28.3404  -14.0017 C   0  0  0  0  0  0  0  0  0  0  0  0
    0.2354   27.5519  -14.1054 C   0  0  0  0  0  0  0  0  0  0  0  0
   -0.8603   28.2436  -14.5611 O   0  0  0  0  0  0  0  0  0  0  0  0
   -0.3605   29.5806  -14.8126 N   0  0  0  0  0  0  0  0  0  0  0  0
    0.9667   29.6654  -14.4933 C   0  0  0  0  0  0  0  0  0  0  0  0
    1.6919   30.6246  -14.6732 O   0  0  0  0  0  0  0  0  0  0  0  0
    5.4801   27.6803  -12.5985 C   0  0  0  0  0  0  0  0  0  0  0  0
    5.2352   28.9636  -13.0246 O   0  0  0  0  0  0  0  0  0  0  0  0
 22 21  1  0
 21  2  2  0
  2  1  1  0
  2  3  1  0
  3  4  2  0
  4  5  1  0
  5  6  1  0
  6  7  1  0
  7  8  1  0
  8  9  2  0
  8 10  1  0
  8 11  1  0
  5 12  2  0
 12 13  1  0
 13 14  1  0
 14 15  1  0
 15 16  2  0
 16 17  1  0
 17 18  1  0
 18 19  1  0
 19 20  2  0
 12 21  1  0
 19 15  1  0
M  CHG  1  14   1
M  END
$$$$
